*Heading
** Job name: Job-2d-truss-structure Model name: Model-1
** Generated by: Abaqus/CAE 2022
*Preprint, echo=NO, model=NO, history=NO, contact=NO
**
** PARTS
**
*Part, name=Part-1
*Node
      1,         100.,          10.
      2,         100.,          20.
      3,          90.,          10.
      4,          90.,          20.
      5,          80.,          20.
      6,          90.,           0.
      7,          80.,           0.
      8,          70.,           0.
      9,          70.,          10.
     10,         100.,           0.
     11,          80.,          10.
     12,          60.,          20.
     13,          50.,          10.
     14,          60.,          10.
     15,          60.,           0.
     16,          50.,           0.
     17,          70.,          20.
     18,          50.,          20.
     19,          40.,          20.
     20,          30.,          10.
** ... 13 like lines cut
*Element, type=T2D2
1, 1, 2
2, 3, 2
3, 4, 3
4, 4, 5
5, 5, 3
6, 3, 6
7, 7, 6
8, 8, 7
 9, 8, 9
10, 9, 5
11, 10,  1
12, 3, 1
13, 2, 4
14,  3, 10
15,  5, 11
16,  9, 11
17,  9, 12
18, 13, 12
19, 13, 14
20, 14,  9
** ... 52 like lines cut
*Nset, nset=Set-nodes, generate
  1,  33,   1
*Elset, elset=Set-elems, generate
  1,  72,   1
*Nset, nset=Set-fixed-nodes
 26, 27, 32
*Nset, nset=Set-load-node
 2,
** Section: Section-1
*Solid Section, elset=Set-elems, material=Material-1
5.,
*End Part
**  
**
** ASSEMBLY
**
*Assembly, name=Assembly
**  
*Instance, name=Part-1-1, part=Part-1
*End Instance
**  
*End Assembly
** 
** MATERIALS
** 
*Material, name=Material-1
*Elastic
1000., 0.3
** ----------------------------------------------------------------
** 
** STEP: Step-1
** 
*Step, name=Step-1, nlgeom=NO, inc=10
*Static, direct
0.1, 1., 
** 
** BOUNDARY CONDITIONS
** 
** Name: BC-1 Type: Displacement/Rotation
*Boundary
Part-1-1.Set-fixed-nodes, 1, 1
Part-1-1.Set-fixed-nodes, 2, 2
** 
** LOADS
** 
** Name: Load-1   Type: Concentrated force
*Cload
Part-1-1.Set-load-node, 2, -5.
** 
** OUTPUT REQUESTS
** 
*Restart, write, frequency=0
** 
** FIELD OUTPUT: F-Output-1
** 
*Output, field
*Node Output
CF, RF, U
*Element Output, directions=YES
E, LE, S
*Output, history, frequency=0
*End Step
