*Heading
** Job name: Job-3d-torsion-beam Model name: Model-3
** Generated by: Abaqus/CAE 2022
*Preprint, echo=NO, model=NO, history=NO, contact=NO
**
** PARTS
**
*Part, name=Part-1
*Node
      1,          20.,          10.,         200.
      2,          20.,          45.,         200.
      3,          20.,          45.,           0.
      4,          20.,          10.,           0.
      5,          30.,          45.,         200.
      6,          30.,          45.,           0.
      7,          30.,          10.,           0.
      8,          30.,          10.,         200.
      9,          20.,          55.,         200.
     10,          20.,          55.,           0.
     11,          30.,          55.,         200.
     12,          30.,          55.,           0.
     13,           0.,          45.,         200.
     14,           0.,          45.,           0.
     15,           0.,          55.,         200.
     16,           0.,          55.,           0.
     17,          20.,           0.,           0.
     18,          20.,           0.,         200.
     19,           0.,           0.,         200.
     20,           0.,           0.,           0.
** ... 3424 like lines cut
*Element, type=C3D8
  1,  214, 1299, 2665, 1221,    1,   33,  753,  122
  2, 1299, 1300, 2666, 2665,   33,   34,  754,  753
  3, 1300, 1301, 2667, 2666,   34,   35,  755,  754
  4, 1301, 1302, 2668, 2667,   35,   36,  756,  755
  5, 1302, 1303, 2669, 2668,   36,   37,  757,  756
  6, 1303, 1304, 2670, 2669,   37,   38,  758,  757
  7, 1304,  216, 1260, 2670,   38,    2,   39,  758
  8, 1221, 2665, 2671, 1222,  122,  753,  759,  121
  9, 2665, 2666, 2672, 2671,  753,  754,  760,  759
 10, 2666, 2667, 2673, 2672,  754,  755,  761,  760
 11, 2667, 2668, 2674, 2673,  755,  756,  762,  761
 12, 2668, 2669, 2675, 2674,  756,  757,  763,  762
 13, 2669, 2670, 2676, 2675,  757,  758,  764,  763
 14, 2670, 1260, 1261, 2676,  758,   39,   40,  764
 15, 1222, 2671, 2677, 1223,  121,  759,  765,  120
 16, 2671, 2672, 2678, 2677,  759,  760,  766,  765
 17, 2672, 2673, 2679, 2678,  760,  761,  767,  766
 18, 2673, 2674, 2680, 2679,  761,  762,  768,  767
 19, 2674, 2675, 2681, 2680,  762,  763,  769,  768
 20, 2675, 2676, 2682, 2681,  763,  764,  770,  769
** ... 2140 like lines cut
*Nset, nset=Set-nodes, generate
    1,  3444,     1
*Elset, elset=Set-elems, generate
    1,  2160,     1
*Nset, nset=Set-fixed-nodes
    3,    4,    6,    7,   10,   12,   14,   16,   17,   20,   22,   24,   26,   27,   30,   31
   78,   79,   80,   81,   82,   83,  168,  169,  170,  171,  172,  173,  213,  215,  257,  298
  299,  343,  344,  345,  388,  389,  390,  391,  474,  475,  476,  519,  520,  521,  522,  523
  568,  569,  570,  613,  614,  615,  655,  657,  662,  663,  664,  707,  708,  709,  749,  751
 1305, 1306, 1307, 1308, 1309, 1310, 1389, 1706, 1707, 1708, 1943, 1944, 1945, 2342, 2343, 2344
 2621, 2622, 2623, 2664
*Nset, nset=Set-load1-nodes
  29,  32, 750
*Nset, nset=Set-load2-nodes
  19,  21, 524
** Section: Section-1
*Solid Section, elset=Set-elems, material=Material-1
,
*End Part
**  
**
** ASSEMBLY
**
*Assembly, name=Assembly
**  
*Instance, name=Part-1-1, part=Part-1
*End Instance
**  
*End Assembly
** 
** MATERIALS
** 
*Material, name=Material-1
*Elastic
1000., 0.3
** ----------------------------------------------------------------
** 
** STEP: Step-1
** 
*Step, name=Step-1, nlgeom=NO, inc=10
*Static, direct
0.1, 1., 
** 
** BOUNDARY CONDITIONS
** 
** Name: BC-1 Type: Displacement/Rotation
*Boundary
Part-1-1.Set-fixed-nodes, 1, 1
Part-1-1.Set-fixed-nodes, 2, 2
Part-1-1.Set-fixed-nodes, 3, 3
** 
** LOADS
** 
** Name: Load-1   Type: Concentrated force
*Cload
Part-1-1.Set-load1-nodes, 1, -10.
** Name: Load-2   Type: Concentrated force
*Cload
Part-1-1.Set-load2-nodes, 1, 10.
** 
** OUTPUT REQUESTS
** 
*Restart, write, frequency=0
** 
** FIELD OUTPUT: F-Output-1
** 
*Output, field
*Node Output
CF, RF, U
** 
** FIELD OUTPUT: F-Output-2
** 
*Element Output, position=CENTROIDAL, directions=YES
S, 
*Output, history, frequency=0
*End Step
