*Heading
** Job name: Job-2d-gravity-dam Model name: Model-2
** Generated by: Abaqus/CAE 2022
*Preprint, echo=NO, model=NO, history=NO, contact=NO
**
** PARTS
**
*Part, name=Part-1
*Node
      1,          30.,          70.
      2,          30.,           0.
      3,       101.25,           0.
      4,           0.,          70.
      5,          30.,         100.
      6,           0.,         100.
      7,           0.,           0.
      8,          30.,   66.1111145
      9,          30.,   62.2222214
     10,          30.,   58.3333321
     11,          30.,   54.4444427
     12,          30.,   50.5555573
     13,          30.,   46.6666679
     14,          30.,   42.7777786
     15,          30.,   38.8888893
     16,          30.,          35.
     17,          30.,   31.1111107
     18,          30.,   27.2222214
     19,          30.,    23.333334
     20,          30.,   19.4444447
** ... 419 like lines cut
*Element, type=CPE3
  1, 148,   8,   9
  2, 118,   9,  10
  3, 119, 118,  10
  4, 120, 119,  11
  5, 121, 120,  12
  6, 122, 121,  13
  7, 123, 122,  14
  8, 124, 123,  15
  9, 125, 124,  16
 10, 126, 125,  17
 11, 127, 126,  18
 12, 128, 127,  19
 13, 207, 206, 175
 14, 129, 128,  20
 15, 130, 129,  21
 16, 131, 130,  22
 17, 132,  24,  25
 18,  24,   2,  25
 19,  42,  41,   3
 20, 133,  41,  42
** ... 347 like lines cut
*Element, type=CPE4
368,   4,  66, 272,  93
369,  66,  67, 273, 272
370,  67,  68, 274, 273
371,  68,  69, 275, 274
372,  69,  70, 276, 275
373,  70,  71, 277, 276
374,  71,  72, 278, 277
375,  72,   1,  73, 278
376,  93, 272, 279,  92
377, 272, 273, 280, 279
378, 273, 274, 281, 280
379, 274, 275, 282, 281
380, 275, 276, 283, 282
381, 276, 277, 284, 283
382, 277, 278, 285, 284
383, 278,  73,  74, 285
384,  92, 279, 286,  91
385, 279, 280, 287, 286
386, 280, 281, 288, 287
387, 281, 282, 289, 288
** ... 188 like lines cut
*Elset, elset=Set-elems, generate
   1,  575,    1
*Nset, nset=Set-nodes, generate
   1,  439,    1
*Nset, nset=Set-fixed-nodes
   2,   3,   7,  25,  26,  27,  28,  29,  30,  31,  32,  33,  34,  35,  36,  37
  38,  39,  40,  41, 111, 112, 113, 114, 115, 116, 117
*Nset, nset=Set-load1-nodes
   7, 103, 104, 105, 106, 107, 108, 109, 110
*Nset, nset=Set-load2-nodes, generate
  94,  102,    1
*Nset, nset=Set-load3-nodes
  4,  6, 87, 88, 89, 90, 91, 92, 93
** Section: Section-1
*Solid Section, elset=Set-elems, material=Material-1
200.,
*End Part
**  
**
** ASSEMBLY
**
*Assembly, name=Assembly
**  
*Instance, name=Part-1-1, part=Part-1
*End Instance
**  
*End Assembly
** 
** MATERIALS
** 
*Material, name=Material-1
*Elastic
1000., 0.3
** ----------------------------------------------------------------
** 
** STEP: Step-1
** 
*Step, name=Step-1, nlgeom=NO, inc=10
*Static, direct
0.1, 1., 
** 
** BOUNDARY CONDITIONS
** 
** Name: BC-1 Type: Displacement/Rotation
*Boundary
Part-1-1.Set-fixed-nodes, 1, 1
Part-1-1.Set-fixed-nodes, 2, 2
** 
** LOADS
** 
** Name: Load-1   Type: Concentrated force
*Cload
Part-1-1.Set-load1-nodes, 1, 30.
** Name: Load-2   Type: Concentrated force
*Cload
Part-1-1.Set-load2-nodes, 1, 20.
** Name: Load-3   Type: Concentrated force
*Cload
Part-1-1.Set-load3-nodes, 1, 10.
** 
** OUTPUT REQUESTS
** 
*Restart, write, frequency=0
** 
** FIELD OUTPUT: F-Output-1
** 
*Output, field
*Node Output
CF, RF, U
*Element Output, directions=YES
E, S
*Output, history, frequency=0
*End Step
